C17H12ClN3O5S        CHEMBL266457                             
          11280714432D 1   1.00000     0.00000     0

 27 29  0     0  0            999 V2000
    5.2792   -2.0500    0.0000 C   0  0  0  0  0  0           0  0  0
    5.7917   -2.3500    0.0000 N   0  0  3  0  0  0           0  0  0
    5.2792   -1.4500    0.0000 N   0  0  0  0  0  0           0  0  0
    6.3125   -2.0500    0.0000 N   0  0  0  0  0  0           0  0  0
    7.8625   -5.9417    0.0000 S   0  0  3  0  0  0           0  0  0
    5.7875   -4.1417    0.0000 C   0  0  0  0  0  0           0  0  0
    6.3125   -1.4500    0.0000 C   0  0  0  0  0  0           0  0  0
    5.7917   -2.9500    0.0000 C   0  0  0  0  0  0           0  0  0
    5.7917   -1.1500    0.0000 C   0  0  0  0  0  0           0  0  0
    5.7875   -4.7417    0.0000 C   0  0  0  0  0  0           0  0  0
    5.2667   -3.8417    0.0000 C   0  0  0  0  0  0           0  0  0
    5.2667   -3.2417    0.0000 C   0  0  0  0  0  0           0  0  0
    6.3042   -3.8417    0.0000 C   0  0  0  0  0  0           0  0  0
    7.3417   -5.6417    0.0000 C   0  0  0  0  0  0           0  0  0
    4.7542   -2.3417    0.0000 O   0  0  0  0  0  0           0  0  0
    6.3042   -5.0417    0.0000 C   0  0  0  0  0  0           0  0  0
    8.4000   -5.4625    0.0000 O   0  0  0  0  0  0           0  0  0
    8.3792   -6.2417    0.0000 O   0  0  0  0  0  0           0  0  0
    6.3042   -3.2417    0.0000 C   0  0  0  0  0  0           0  0  0
    5.2667   -5.0417    0.0000 O   0  0  0  0  0  0           0  0  0
    5.7917   -0.5500    0.0000 O   0  0  0  0  0  0           0  0  0
    7.3417   -5.0417    0.0000 C   0  0  0  0  0  0           0  0  0
    6.8250   -5.9417    0.0000 C   0  0  0  0  0  0           0  0  0
    6.8167   -4.7417    0.0000 C   0  0  0  0  0  0           0  0  0
    6.3042   -5.6417    0.0000 C   0  0  0  0  0  0           0  0  0
    4.7417   -4.1417    0.0000 Cl  0  0  0  0  0  0           0  0  0
    7.8625   -6.5417    0.0000 C   0  0  0  0  0  0           0  0  0
  2  1  1  0     0  0
  3  1  1  0     0  0
  4  2  1  0     0  0
  5 14  1  0     0  0
  6 13  1  0     0  0
  7  9  1  0     0  0
  8  2  1  0     0  0
  9  3  1  0     0  0
 10  6  1  0     0  0
 11 12  1  0     0  0
 12  8  2  0     0  0
 13 19  2  0     0  0
 14 23  2  0     0  0
 15  1  2  0     0  0
 16 10  1  0     0  0
 17  5  2  0     0  0
 18  5  2  0     0  0
 19  8  1  0     0  0
 20 10  2  0     0  0
 21  9  2  0     0  0
 22 24  2  0     0  0
 23 25  1  0     0  0
 24 16  1  0     0  0
 25 16  2  0     0  0
 26 11  1  0     0  0
 27  5  1  0     0  0
  4  7  2  0     0  0
 11  6  2  0     0  0
 22 14  1  0     0  0
M  END